<?xml version="1.0" encoding="UTF-8"?>

<!-- generated on 2024-11-07 11:59:08 by Eclipse SUMO netedit Version 1.21.0
<neteditConfiguration xmlns:xsi="http://www.w3.org/2001/XMLSchema-instance" xsi:noNamespaceSchemaLocation="http://sumo.dlr.de/xsd/neteditConfiguration.xsd">

    <input>
        <sumocfg-file value="/home/theophile/Code/UQAC/Traffic-lights-RL/Sim/data/long_inter/long_inter.sumocfg"/>
        <additional-files value=""/>
        <route-files value="/home/theophile/Code/UQAC/Traffic-lights-RL/Sim/data/simple_inter/simple_inter.rou.xml"/>
        <sumo-net-file value="/home/theophile/Code/UQAC/Traffic-lights-RL/Sim/data/long_inter/long_inter.net.xml"/>
    </input>

    <output>
        <output-file value="/home/theophile/Code/UQAC/Traffic-lights-RL/Sim/data/long_inter/long_inter.net.xml"/>
    </output>

    <processing>
        <geometry.min-radius.fix.railways value="false"/>
        <geometry.max-grade.fix value="false"/>
        <offset.disable-normalization value="true"/>
        <lefthand value="0"/>
    </processing>

    <junctions>
        <no-internal-links value="false"/>
        <no-turnarounds value="true"/>
        <junctions.corner-detail value="5"/>
        <junctions.limit-turn-speed value="5.50"/>
        <rectangular-lane-cut value="0"/>
    </junctions>

    <pedestrian>
        <walkingareas value="0"/>
    </pedestrian>

</neteditConfiguration>
-->

<net version="1.20" junctionCornerDetail="5" limitTurnSpeed="5.50" xmlns:xsi="http://www.w3.org/2001/XMLSchema-instance" xsi:noNamespaceSchemaLocation="http://sumo.dlr.de/xsd/net_file.xsd">

    <location netOffset="0.00,0.00" convBoundary="-322.29,-251.12,497.05,393.55" origBoundary="-10000000000.00,-10000000000.00,10000000000.00,10000000000.00" projParameter="!"/>

    <edge id=":J0_w0" function="walkingarea">
        <lane id=":J0_w0_0" index="0" allow="pedestrian" speed="2.78" length="8.40" width="2.00" shape="-322.29,56.85 -322.29,54.85 -322.29,65.25 -322.29,63.25"/>
    </edge>
    <edge id=":J3_w0" function="walkingarea">
        <lane id=":J3_w0_0" index="0" allow="pedestrian" speed="2.78" length="8.40" width="2.00" shape="66.45,-251.11 68.45,-251.10 58.05,-251.14 60.05,-251.13"/>
    </edge>
    <edge id=":J4_w0" function="walkingarea">
        <lane id=":J4_w0_0" index="0" allow="pedestrian" speed="2.78" length="8.40" width="2.00" shape="57.20,393.54 55.20,393.53 65.60,393.57 63.60,393.56"/>
    </edge>
    <edge id=":J7_w0" function="walkingarea">
        <lane id=":J7_w0_0" index="0" allow="pedestrian" speed="2.78" length="8.40" width="2.00" shape="497.05,63.11 497.06,65.11 497.04,54.71 497.05,56.71"/>
    </edge>
    <edge id=":clusterJ1_J2_J5_J6_0" function="internal">
        <lane id=":clusterJ1_J2_J5_J6_0_0" index="0" disallow="pedestrian" speed="7.33" length="7.16" shape="71.71,62.11 67.96,62.48 65.28,63.57 64.95,63.94"/>
    </edge>
    <edge id=":clusterJ1_J2_J5_J6_1" function="internal">
        <lane id=":clusterJ1_J2_J5_J6_1_0" index="0" disallow="pedestrian" speed="13.89" length="19.94" shape="71.71,62.11 51.78,61.79"/>
    </edge>
    <edge id=":clusterJ1_J2_J5_J6_2" function="internal">
        <lane id=":clusterJ1_J2_J5_J6_2_0" index="0" disallow="pedestrian" speed="8.66" length="5.22" shape="71.71,62.11 66.82,61.51 66.56,61.38"/>
    </edge>
    <edge id=":clusterJ1_J2_J5_J6_12" function="internal">
        <lane id=":clusterJ1_J2_J5_J6_12_0" index="0" disallow="pedestrian" speed="7.33" length="4.54" shape="64.95,63.94 63.66,65.39 63.12,67.94"/>
    </edge>
    <edge id=":clusterJ1_J2_J5_J6_13" function="internal">
        <lane id=":clusterJ1_J2_J5_J6_13_0" index="0" disallow="pedestrian" speed="8.66" length="11.64" shape="66.56,61.38 63.32,59.69 61.23,56.66 60.55,52.41"/>
    </edge>
    <edge id=":clusterJ1_J2_J5_J6_3" function="internal">
        <lane id=":clusterJ1_J2_J5_J6_3_0" index="0" disallow="pedestrian" speed="7.30" length="7.60" shape="63.75,52.43 64.24,55.27 65.73,57.29 67.71,58.26"/>
    </edge>
    <edge id=":clusterJ1_J2_J5_J6_4" function="internal">
        <lane id=":clusterJ1_J2_J5_J6_4_0" index="0" disallow="pedestrian" speed="13.89" length="15.52" shape="63.75,52.43 63.12,67.94"/>
    </edge>
    <edge id=":clusterJ1_J2_J5_J6_5" function="internal">
        <lane id=":clusterJ1_J2_J5_J6_5_0" index="0" disallow="pedestrian" speed="8.78" length="4.17" shape="63.75,52.43 62.99,56.52"/>
    </edge>
    <edge id=":clusterJ1_J2_J5_J6_14" function="internal">
        <lane id=":clusterJ1_J2_J5_J6_14_0" index="0" disallow="pedestrian" speed="7.30" length="4.08" shape="67.71,58.26 68.22,58.51 71.71,58.91"/>
    </edge>
    <edge id=":clusterJ1_J2_J5_J6_15" function="internal">
        <lane id=":clusterJ1_J2_J5_J6_15_0" index="0" disallow="pedestrian" speed="8.78" length="13.08" shape="62.99,56.52 60.74,59.45 57.00,61.21 51.78,61.79"/>
    </edge>
    <edge id=":clusterJ1_J2_J5_J6_6" function="internal">
        <lane id=":clusterJ1_J2_J5_J6_6_0" index="0" disallow="pedestrian" speed="7.45" length="7.66" shape="51.78,58.59 55.61,58.21 58.35,57.05 58.89,56.41"/>
    </edge>
    <edge id=":clusterJ1_J2_J5_J6_7" function="internal">
        <lane id=":clusterJ1_J2_J5_J6_7_0" index="0" disallow="pedestrian" speed="13.89" length="19.93" shape="51.78,58.59 71.71,58.91"/>
    </edge>
    <edge id=":clusterJ1_J2_J5_J6_8" function="internal">
        <lane id=":clusterJ1_J2_J5_J6_8_0" index="0" disallow="pedestrian" speed="8.63" length="5.35" shape="51.78,58.59 56.75,59.18 57.06,59.33"/>
    </edge>
    <edge id=":clusterJ1_J2_J5_J6_16" function="internal">
        <lane id=":clusterJ1_J2_J5_J6_16_0" index="0" disallow="pedestrian" speed="7.45" length="4.46" shape="58.89,56.41 59.99,55.12 60.55,52.41"/>
    </edge>
    <edge id=":clusterJ1_J2_J5_J6_17" function="internal">
        <lane id=":clusterJ1_J2_J5_J6_17_0" index="0" disallow="pedestrian" speed="8.63" length="11.37" shape="57.06,59.33 60.30,60.93 62.42,63.85 63.12,67.94"/>
    </edge>
    <edge id=":clusterJ1_J2_J5_J6_9" function="internal">
        <lane id=":clusterJ1_J2_J5_J6_9_0" index="0" disallow="pedestrian" speed="7.27" length="7.50" shape="59.92,67.92 59.42,65.24 57.90,63.33 55.78,62.37"/>
    </edge>
    <edge id=":clusterJ1_J2_J5_J6_10" function="internal">
        <lane id=":clusterJ1_J2_J5_J6_10_0" index="0" disallow="pedestrian" speed="13.89" length="15.52" shape="59.92,67.92 60.55,52.41"/>
    </edge>
    <edge id=":clusterJ1_J2_J5_J6_11" function="internal">
        <lane id=":clusterJ1_J2_J5_J6_11_0" index="0" disallow="pedestrian" speed="8.68" length="4.01" shape="59.92,67.92 60.67,63.99"/>
    </edge>
    <edge id=":clusterJ1_J2_J5_J6_18" function="internal">
        <lane id=":clusterJ1_J2_J5_J6_18_0" index="0" disallow="pedestrian" speed="7.27" length="4.06" shape="55.78,62.37 55.35,62.17 51.78,61.79"/>
    </edge>
    <edge id=":clusterJ1_J2_J5_J6_19" function="internal">
        <lane id=":clusterJ1_J2_J5_J6_19_0" index="0" disallow="pedestrian" speed="8.68" length="12.81" shape="60.67,63.99 62.88,61.17 66.56,59.48 71.71,58.91"/>
    </edge>
    <edge id=":clusterJ1_J2_J5_J6_c0" function="crossing" crossingEdges="E3 -E3">
        <lane id=":clusterJ1_J2_J5_J6_c0_0" index="0" allow="pedestrian" speed="2.78" length="6.40" width="4.00" shape="69.71,57.31 69.71,63.71" outlineShape="71.71,57.31 71.71,63.71 69.58,63.83 67.84,64.18 67.72,64.24 67.70,56.52 68.17,56.77 69.76,57.18"/>
    </edge>
    <edge id=":clusterJ1_J2_J5_J6_c1" function="crossing" crossingEdges="E1 -E1">
        <lane id=":clusterJ1_J2_J5_J6_c1_0" index="0" allow="pedestrian" speed="2.78" length="6.40" width="4.00" shape="58.94,54.41 65.34,54.43" outlineShape="58.95,52.41 65.35,52.43 65.45,52.43 65.35,52.43 65.52,53.92 66.05,55.15 66.93,56.09 67.56,56.44 55.94,56.40 57.15,55.85 58.15,54.95 58.75,53.81"/>
    </edge>
    <edge id=":clusterJ1_J2_J5_J6_c2" function="crossing" crossingEdges="-E0 E0">
        <lane id=":clusterJ1_J2_J5_J6_c2_0" index="0" allow="pedestrian" speed="2.78" length="6.40" width="4.00" shape="53.78,63.39 53.78,56.99" outlineShape="51.78,63.39 51.78,56.99 53.97,56.86 55.76,56.48 55.78,64.07 55.42,63.89 53.78,63.52"/>
    </edge>
    <edge id=":clusterJ1_J2_J5_J6_c3" function="crossing" crossingEdges="-E2 E2">
        <lane id=":clusterJ1_J2_J5_J6_c3_0" index="0" allow="pedestrian" speed="2.78" length="6.40" width="4.00" shape="64.73,65.94 58.33,65.92" outlineShape="64.72,67.94 58.32,67.92 58.14,66.54 57.60,65.40 56.69,64.52 56.16,64.26 58.33,63.92 64.73,63.94 66.99,64.55 66.48,64.77 65.50,65.59 64.92,66.65"/>
    </edge>
    <edge id=":clusterJ1_J2_J5_J6_w0" function="walkingarea">
        <lane id=":clusterJ1_J2_J5_J6_w0_0" index="0" allow="pedestrian" speed="2.78" length="4.94" width="4.00" shape="64.72,67.94 66.72,67.95 71.72,65.71 71.71,63.71 69.58,63.83 67.84,64.18 66.48,64.77 65.50,65.59 64.92,66.65"/>
    </edge>
    <edge id=":clusterJ1_J2_J5_J6_w1" function="walkingarea">
        <lane id=":clusterJ1_J2_J5_J6_w1_0" index="0" allow="pedestrian" speed="2.78" length="4.81" width="4.00" shape="71.71,57.31 71.70,55.31 67.35,52.44 65.35,52.43 65.52,53.92 66.05,55.15 66.93,56.09 68.17,56.77 69.76,57.18"/>
    </edge>
    <edge id=":clusterJ1_J2_J5_J6_w2" function="walkingarea">
        <lane id=":clusterJ1_J2_J5_J6_w2_0" index="0" allow="pedestrian" speed="2.78" length="5.15" width="4.00" shape="58.95,52.41 56.95,52.40 51.78,54.99 51.78,56.99 53.97,56.86 55.76,56.48 57.15,55.85 58.15,54.95 58.75,53.81"/>
    </edge>
    <edge id=":clusterJ1_J2_J5_J6_w3" function="walkingarea">
        <lane id=":clusterJ1_J2_J5_J6_w3_0" index="0" allow="pedestrian" speed="2.78" length="4.79" width="4.00" shape="51.78,63.39 51.78,65.39 56.32,67.91 58.32,67.92 58.14,66.54 57.60,65.40 56.69,64.52 55.42,63.89 53.78,63.52"/>
    </edge>

    <edge id="-E0" from="clusterJ1_J2_J5_J6" to="J0" priority="-1" shape="51.78,60.19 -322.29,60.05">
        <lane id="-E0_0" index="0" allow="pedestrian" speed="13.89" length="374.07" width="2.00" shape="51.78,64.39 -322.29,64.25"/>
        <lane id="-E0_1" index="1" disallow="pedestrian" speed="13.89" length="374.07" shape="51.78,61.79 -322.29,61.65"/>
    </edge>
    <edge id="-E1" from="J3" to="clusterJ1_J2_J5_J6" priority="-1" shape="63.25,-251.12 62.15,52.42">
        <lane id="-E1_0" index="0" allow="pedestrian" speed="13.89" length="303.54" width="2.00" shape="67.45,-251.10 66.35,52.44"/>
        <lane id="-E1_1" index="1" disallow="pedestrian" speed="13.89" length="303.54" shape="64.85,-251.11 63.75,52.43"/>
    </edge>
    <edge id="-E2" from="clusterJ1_J2_J5_J6" to="J4" priority="-1" shape="61.52,67.93 60.40,393.55">
        <lane id="-E2_0" index="0" allow="pedestrian" speed="13.89" length="325.62" width="2.00" shape="65.72,67.94 64.60,393.56"/>
        <lane id="-E2_1" index="1" disallow="pedestrian" speed="13.89" length="325.62" shape="63.12,67.94 62.00,393.56"/>
    </edge>
    <edge id="-E3" from="J7" to="clusterJ1_J2_J5_J6" priority="-1" shape="497.05,59.91 71.71,60.51">
        <lane id="-E3_0" index="0" allow="pedestrian" speed="13.89" length="425.34" width="2.00" shape="497.06,64.11 71.72,64.71"/>
        <lane id="-E3_1" index="1" disallow="pedestrian" speed="13.89" length="425.34" shape="497.05,61.51 71.71,62.11"/>
    </edge>
    <edge id="E0" from="J0" to="clusterJ1_J2_J5_J6" priority="-1" shape="-322.29,60.05 51.78,60.19">
        <lane id="E0_0" index="0" allow="pedestrian" speed="13.89" length="374.07" width="2.00" shape="-322.29,55.85 51.78,55.99"/>
        <lane id="E0_1" index="1" disallow="pedestrian" speed="13.89" length="374.07" shape="-322.29,58.45 51.78,58.59"/>
    </edge>
    <edge id="E1" from="clusterJ1_J2_J5_J6" to="J3" priority="-1" shape="62.15,52.42 63.25,-251.12">
        <lane id="E1_0" index="0" allow="pedestrian" speed="13.89" length="303.54" width="2.00" shape="57.95,52.40 59.05,-251.14"/>
        <lane id="E1_1" index="1" disallow="pedestrian" speed="13.89" length="303.54" shape="60.55,52.41 61.65,-251.13"/>
    </edge>
    <edge id="E2" from="J4" to="clusterJ1_J2_J5_J6" priority="-1" shape="60.40,393.55 61.52,67.93">
        <lane id="E2_0" index="0" allow="pedestrian" speed="13.89" length="325.62" width="2.00" shape="56.20,393.54 57.32,67.92"/>
        <lane id="E2_1" index="1" disallow="pedestrian" speed="13.89" length="325.62" shape="58.80,393.54 59.92,67.92"/>
    </edge>
    <edge id="E3" from="clusterJ1_J2_J5_J6" to="J7" priority="-1" shape="71.71,60.51 497.05,59.91">
        <lane id="E3_0" index="0" allow="pedestrian" speed="13.89" length="425.34" width="2.00" shape="71.70,56.31 497.04,55.71"/>
        <lane id="E3_1" index="1" disallow="pedestrian" speed="13.89" length="425.34" shape="71.71,58.91 497.05,58.31"/>
    </edge>

    <tlLogic id="clusterJ1_J2_J5_J6" type="static" programID="0" offset="0">
        <phase duration="1500" state="rrrgGgrrrgGgGrGr"/>
        <phase duration="1500" state="rrryyyrrryyyrrrr"/>
        <phase duration="1500" state="gGgrrrgGgrrrrGrG"/>
        <phase duration="1500" state="yyyrrryyyrrrrrrr"/>
    </tlLogic>

    <junction id="J0" type="dead_end" x="-322.29" y="60.05" incLanes="-E0_0 -E0_1" intLanes="" shape="-322.29,60.05 -322.29,65.25 -322.29,60.05"/>
    <junction id="J3" type="dead_end" x="63.25" y="-251.12" incLanes="E1_0 E1_1" intLanes="" shape="63.25,-251.12 58.05,-251.14 63.25,-251.12"/>
    <junction id="J4" type="dead_end" x="60.40" y="393.55" incLanes="-E2_0 -E2_1" intLanes="" shape="60.40,393.55 65.60,393.57 60.40,393.55"/>
    <junction id="J7" type="dead_end" x="497.05" y="59.91" incLanes="E3_0 E3_1" intLanes="" shape="497.05,59.91 497.04,54.71 497.05,59.91"/>
    <junction id="clusterJ1_J2_J5_J6" type="traffic_light" x="61.79" y="60.26" incLanes="-E3_0 -E3_1 -E1_0 -E1_1 E0_0 E0_1 E2_0 E2_1 :clusterJ1_J2_J5_J6_w1_0 :clusterJ1_J2_J5_J6_w2_0 :clusterJ1_J2_J5_J6_w3_0 :clusterJ1_J2_J5_J6_w0_0" intLanes=":clusterJ1_J2_J5_J6_12_0 :clusterJ1_J2_J5_J6_1_0 :clusterJ1_J2_J5_J6_13_0 :clusterJ1_J2_J5_J6_14_0 :clusterJ1_J2_J5_J6_4_0 :clusterJ1_J2_J5_J6_15_0 :clusterJ1_J2_J5_J6_16_0 :clusterJ1_J2_J5_J6_7_0 :clusterJ1_J2_J5_J6_17_0 :clusterJ1_J2_J5_J6_18_0 :clusterJ1_J2_J5_J6_10_0 :clusterJ1_J2_J5_J6_19_0 :clusterJ1_J2_J5_J6_c0_0 :clusterJ1_J2_J5_J6_c1_0 :clusterJ1_J2_J5_J6_c2_0 :clusterJ1_J2_J5_J6_c3_0" shape="71.72,65.71 71.70,55.31 69.28,54.99 68.43,54.60 67.83,54.04 67.47,53.32 67.35,52.44 56.95,52.40 56.37,53.84 55.65,54.34 54.65,54.70 53.36,54.92 51.78,54.99 51.78,65.39 54.31,65.67 55.19,66.02 55.82,66.51 56.20,67.14 56.32,67.91 66.72,67.95 67.28,66.71 67.97,66.27 68.94,65.96 70.19,65.77">
        <request index="0"  response="1001000000010000" foes="1001000100010000" cont="1"/>
        <request index="1"  response="0101111000110000" foes="0101111100110000" cont="0"/>
        <request index="2"  response="0011110011110000" foes="0011110011110000" cont="1"/>
        <request index="3"  response="0011000000000000" foes="0011100010000000" cont="1"/>
        <request index="4"  response="1010000100000101" foes="1010100110000111" cont="0"/>
        <request index="5"  response="0110011100000100" foes="0110011110000110" cont="1"/>
        <request index="6"  response="0110010000000000" foes="0110010000000100" cont="1"/>
        <request index="7"  response="0101110000111000" foes="0101110000111100" cont="0"/>
        <request index="8"  response="1100110000110011" foes="1100110000110011" cont="1"/>
        <request index="9"  response="1100000000000000" foes="1100000000100010" cont="1"/>
        <request index="10" response="1010000101000100" foes="1010000111100110" cont="0"/>
        <request index="11" response="1001000100011100" foes="1001000110011110" cont="1"/>
        <request index="12" response="0000000000000000" foes="0000100010001111" cont="0"/>
        <request index="13" response="0000000000000000" foes="0000010001111100" cont="0"/>
        <request index="14" response="0000000000000000" foes="0000001111100010" cont="0"/>
        <request index="15" response="0000000000000000" foes="0000111100010001" cont="0"/>
    </junction>

    <junction id=":clusterJ1_J2_J5_J6_12_0" type="internal" x="64.95" y="63.94" incLanes=":clusterJ1_J2_J5_J6_0_0" intLanes=":clusterJ1_J2_J5_J6_4_0 :clusterJ1_J2_J5_J6_8_0 :clusterJ1_J2_J5_J6_c0_0 :clusterJ1_J2_J5_J6_c3_0"/>
    <junction id=":clusterJ1_J2_J5_J6_13_0" type="internal" x="66.56" y="61.38" incLanes=":clusterJ1_J2_J5_J6_2_0 E0_1" intLanes=":clusterJ1_J2_J5_J6_4_0 :clusterJ1_J2_J5_J6_5_0 :clusterJ1_J2_J5_J6_6_0 :clusterJ1_J2_J5_J6_7_0 :clusterJ1_J2_J5_J6_10_0 :clusterJ1_J2_J5_J6_11_0 :clusterJ1_J2_J5_J6_c0_0 :clusterJ1_J2_J5_J6_c1_0"/>
    <junction id=":clusterJ1_J2_J5_J6_14_0" type="internal" x="67.71" y="58.26" incLanes=":clusterJ1_J2_J5_J6_3_0" intLanes=":clusterJ1_J2_J5_J6_7_0 :clusterJ1_J2_J5_J6_11_0 :clusterJ1_J2_J5_J6_c0_0 :clusterJ1_J2_J5_J6_c1_0"/>
    <junction id=":clusterJ1_J2_J5_J6_15_0" type="internal" x="62.99" y="56.52" incLanes=":clusterJ1_J2_J5_J6_5_0 E2_1" intLanes=":clusterJ1_J2_J5_J6_1_0 :clusterJ1_J2_J5_J6_2_0 :clusterJ1_J2_J5_J6_7_0 :clusterJ1_J2_J5_J6_8_0 :clusterJ1_J2_J5_J6_9_0 :clusterJ1_J2_J5_J6_10_0 :clusterJ1_J2_J5_J6_c1_0 :clusterJ1_J2_J5_J6_c2_0"/>
    <junction id=":clusterJ1_J2_J5_J6_16_0" type="internal" x="58.89" y="56.41" incLanes=":clusterJ1_J2_J5_J6_6_0" intLanes=":clusterJ1_J2_J5_J6_2_0 :clusterJ1_J2_J5_J6_10_0 :clusterJ1_J2_J5_J6_c1_0 :clusterJ1_J2_J5_J6_c2_0"/>
    <junction id=":clusterJ1_J2_J5_J6_17_0" type="internal" x="57.06" y="59.33" incLanes=":clusterJ1_J2_J5_J6_8_0 -E3_1" intLanes=":clusterJ1_J2_J5_J6_0_0 :clusterJ1_J2_J5_J6_1_0 :clusterJ1_J2_J5_J6_4_0 :clusterJ1_J2_J5_J6_5_0 :clusterJ1_J2_J5_J6_10_0 :clusterJ1_J2_J5_J6_11_0 :clusterJ1_J2_J5_J6_c2_0 :clusterJ1_J2_J5_J6_c3_0"/>
    <junction id=":clusterJ1_J2_J5_J6_18_0" type="internal" x="55.78" y="62.37" incLanes=":clusterJ1_J2_J5_J6_9_0" intLanes=":clusterJ1_J2_J5_J6_1_0 :clusterJ1_J2_J5_J6_5_0 :clusterJ1_J2_J5_J6_c2_0 :clusterJ1_J2_J5_J6_c3_0"/>
    <junction id=":clusterJ1_J2_J5_J6_19_0" type="internal" x="60.67" y="63.99" incLanes=":clusterJ1_J2_J5_J6_11_0 -E1_1" intLanes=":clusterJ1_J2_J5_J6_1_0 :clusterJ1_J2_J5_J6_2_0 :clusterJ1_J2_J5_J6_3_0 :clusterJ1_J2_J5_J6_4_0 :clusterJ1_J2_J5_J6_7_0 :clusterJ1_J2_J5_J6_8_0 :clusterJ1_J2_J5_J6_c0_0 :clusterJ1_J2_J5_J6_c3_0"/>

    <connection from="-E1" to="E3" fromLane="1" toLane="1" via=":clusterJ1_J2_J5_J6_3_0" tl="clusterJ1_J2_J5_J6" linkIndex="3" dir="r" state="o"/>
    <connection from="-E1" to="-E2" fromLane="1" toLane="1" via=":clusterJ1_J2_J5_J6_4_0" tl="clusterJ1_J2_J5_J6" linkIndex="4" dir="s" state="o"/>
    <connection from="-E1" to="-E0" fromLane="1" toLane="1" via=":clusterJ1_J2_J5_J6_5_0" tl="clusterJ1_J2_J5_J6" linkIndex="5" dir="l" state="o"/>
    <connection from="-E3" to="-E2" fromLane="1" toLane="1" via=":clusterJ1_J2_J5_J6_0_0" tl="clusterJ1_J2_J5_J6" linkIndex="0" dir="r" state="o"/>
    <connection from="-E3" to="-E0" fromLane="1" toLane="1" via=":clusterJ1_J2_J5_J6_1_0" tl="clusterJ1_J2_J5_J6" linkIndex="1" dir="s" state="o"/>
    <connection from="-E3" to="E1" fromLane="1" toLane="1" via=":clusterJ1_J2_J5_J6_2_0" tl="clusterJ1_J2_J5_J6" linkIndex="2" dir="l" state="o"/>
    <connection from="E0" to="E1" fromLane="1" toLane="1" via=":clusterJ1_J2_J5_J6_6_0" tl="clusterJ1_J2_J5_J6" linkIndex="6" dir="r" state="o"/>
    <connection from="E0" to="E3" fromLane="1" toLane="1" via=":clusterJ1_J2_J5_J6_7_0" tl="clusterJ1_J2_J5_J6" linkIndex="7" dir="s" state="o"/>
    <connection from="E0" to="-E2" fromLane="1" toLane="1" via=":clusterJ1_J2_J5_J6_8_0" tl="clusterJ1_J2_J5_J6" linkIndex="8" dir="l" state="o"/>
    <connection from="E2" to="-E0" fromLane="1" toLane="1" via=":clusterJ1_J2_J5_J6_9_0" tl="clusterJ1_J2_J5_J6" linkIndex="9" dir="r" state="o"/>
    <connection from="E2" to="E1" fromLane="1" toLane="1" via=":clusterJ1_J2_J5_J6_10_0" tl="clusterJ1_J2_J5_J6" linkIndex="10" dir="s" state="o"/>
    <connection from="E2" to="E3" fromLane="1" toLane="1" via=":clusterJ1_J2_J5_J6_11_0" tl="clusterJ1_J2_J5_J6" linkIndex="11" dir="l" state="o"/>

    <connection from=":clusterJ1_J2_J5_J6_0" to="-E2" fromLane="0" toLane="1" via=":clusterJ1_J2_J5_J6_12_0" dir="r" state="m"/>
    <connection from=":clusterJ1_J2_J5_J6_12" to="-E2" fromLane="0" toLane="1" dir="r" state="m"/>
    <connection from=":clusterJ1_J2_J5_J6_1" to="-E0" fromLane="0" toLane="1" dir="s" state="M"/>
    <connection from=":clusterJ1_J2_J5_J6_2" to="E1" fromLane="0" toLane="1" via=":clusterJ1_J2_J5_J6_13_0" dir="l" state="m"/>
    <connection from=":clusterJ1_J2_J5_J6_13" to="E1" fromLane="0" toLane="1" dir="l" state="m"/>
    <connection from=":clusterJ1_J2_J5_J6_3" to="E3" fromLane="0" toLane="1" via=":clusterJ1_J2_J5_J6_14_0" dir="r" state="m"/>
    <connection from=":clusterJ1_J2_J5_J6_14" to="E3" fromLane="0" toLane="1" dir="r" state="m"/>
    <connection from=":clusterJ1_J2_J5_J6_4" to="-E2" fromLane="0" toLane="1" dir="s" state="M"/>
    <connection from=":clusterJ1_J2_J5_J6_5" to="-E0" fromLane="0" toLane="1" via=":clusterJ1_J2_J5_J6_15_0" dir="l" state="m"/>
    <connection from=":clusterJ1_J2_J5_J6_15" to="-E0" fromLane="0" toLane="1" dir="l" state="m"/>
    <connection from=":clusterJ1_J2_J5_J6_6" to="E1" fromLane="0" toLane="1" via=":clusterJ1_J2_J5_J6_16_0" dir="r" state="m"/>
    <connection from=":clusterJ1_J2_J5_J6_16" to="E1" fromLane="0" toLane="1" dir="r" state="m"/>
    <connection from=":clusterJ1_J2_J5_J6_7" to="E3" fromLane="0" toLane="1" dir="s" state="M"/>
    <connection from=":clusterJ1_J2_J5_J6_8" to="-E2" fromLane="0" toLane="1" via=":clusterJ1_J2_J5_J6_17_0" dir="l" state="m"/>
    <connection from=":clusterJ1_J2_J5_J6_17" to="-E2" fromLane="0" toLane="1" dir="l" state="m"/>
    <connection from=":clusterJ1_J2_J5_J6_9" to="-E0" fromLane="0" toLane="1" via=":clusterJ1_J2_J5_J6_18_0" dir="r" state="m"/>
    <connection from=":clusterJ1_J2_J5_J6_18" to="-E0" fromLane="0" toLane="1" dir="r" state="m"/>
    <connection from=":clusterJ1_J2_J5_J6_10" to="E1" fromLane="0" toLane="1" dir="s" state="M"/>
    <connection from=":clusterJ1_J2_J5_J6_11" to="E3" fromLane="0" toLane="1" via=":clusterJ1_J2_J5_J6_19_0" dir="l" state="m"/>
    <connection from=":clusterJ1_J2_J5_J6_19" to="E3" fromLane="0" toLane="1" dir="l" state="m"/>

    <connection from=":J0_w0" to="E0" fromLane="0" toLane="0" dir="s" state="M"/>
    <connection from="-E0" to=":J0_w0" fromLane="0" toLane="0" dir="s" state="M"/>
    <connection from=":J3_w0" to="-E1" fromLane="0" toLane="0" dir="s" state="M"/>
    <connection from="E1" to=":J3_w0" fromLane="0" toLane="0" dir="s" state="M"/>
    <connection from=":J4_w0" to="E2" fromLane="0" toLane="0" dir="s" state="M"/>
    <connection from="-E2" to=":J4_w0" fromLane="0" toLane="0" dir="s" state="M"/>
    <connection from=":J7_w0" to="-E3" fromLane="0" toLane="0" dir="s" state="M"/>
    <connection from="E3" to=":J7_w0" fromLane="0" toLane="0" dir="s" state="M"/>
    <connection from=":clusterJ1_J2_J5_J6_c0" to=":clusterJ1_J2_J5_J6_w0" fromLane="0" toLane="0" dir="s" state="M"/>
    <connection from=":clusterJ1_J2_J5_J6_c1" to=":clusterJ1_J2_J5_J6_w1" fromLane="0" toLane="0" dir="s" state="M"/>
    <connection from=":clusterJ1_J2_J5_J6_c2" to=":clusterJ1_J2_J5_J6_w2" fromLane="0" toLane="0" dir="s" state="M"/>
    <connection from=":clusterJ1_J2_J5_J6_c3" to=":clusterJ1_J2_J5_J6_w3" fromLane="0" toLane="0" dir="s" state="M"/>
    <connection from=":clusterJ1_J2_J5_J6_w0" to=":clusterJ1_J2_J5_J6_c3" fromLane="0" toLane="0" tl="clusterJ1_J2_J5_J6" linkIndex="15" dir="s" state="M"/>
    <connection from=":clusterJ1_J2_J5_J6_w0" to="-E2" fromLane="0" toLane="0" dir="s" state="M"/>
    <connection from="-E3" to=":clusterJ1_J2_J5_J6_w0" fromLane="0" toLane="0" dir="s" state="M"/>
    <connection from=":clusterJ1_J2_J5_J6_w1" to=":clusterJ1_J2_J5_J6_c0" fromLane="0" toLane="0" tl="clusterJ1_J2_J5_J6" linkIndex="12" dir="s" state="M"/>
    <connection from=":clusterJ1_J2_J5_J6_w1" to="E3" fromLane="0" toLane="0" dir="s" state="M"/>
    <connection from="-E1" to=":clusterJ1_J2_J5_J6_w1" fromLane="0" toLane="0" dir="s" state="M"/>
    <connection from=":clusterJ1_J2_J5_J6_w2" to=":clusterJ1_J2_J5_J6_c1" fromLane="0" toLane="0" tl="clusterJ1_J2_J5_J6" linkIndex="13" dir="s" state="M"/>
    <connection from=":clusterJ1_J2_J5_J6_w2" to="E1" fromLane="0" toLane="0" dir="s" state="M"/>
    <connection from="E0" to=":clusterJ1_J2_J5_J6_w2" fromLane="0" toLane="0" dir="s" state="M"/>
    <connection from=":clusterJ1_J2_J5_J6_w3" to=":clusterJ1_J2_J5_J6_c2" fromLane="0" toLane="0" tl="clusterJ1_J2_J5_J6" linkIndex="14" dir="s" state="M"/>
    <connection from=":clusterJ1_J2_J5_J6_w3" to="-E0" fromLane="0" toLane="0" dir="s" state="M"/>
    <connection from="E2" to=":clusterJ1_J2_J5_J6_w3" fromLane="0" toLane="0" dir="s" state="M"/>
</net>
