<?xml version="1.0" encoding="UTF-8"?>

<!-- generated on 2024-09-12 23:44:13 by Eclipse SUMO sumo Version 1.20.0
-->

<configuration xmlns:xsi="http://www.w3.org/2001/XMLSchema-instance" xsi:noNamespaceSchemaLocation="http://sumo.dlr.de/xsd/sumoConfiguration.xsd">

    <input>
        <net-file value="simple_inter.net.xml"/>
        <route-files value="simple_inter.rou.xml"/>
    </input>

</configuration>
