<?xml version="1.0" encoding="UTF-8"?>

<!-- generated on 2024-09-25 03:01:22 by Eclipse SUMO sumo Version 1.20.0
-->

<configuration xmlns:xsi="http://www.w3.org/2001/XMLSchema-instance" xsi:noNamespaceSchemaLocation="http://sumo.dlr.de/xsd/sumoConfiguration.xsd">

    <input>
        <net-file value="double_inter.net.xml"/>
        <route-files value="double_inter.rou.xml"/>
    </input>
    
</configuration>
