<?xml version="1.0" encoding="UTF-8"?>

<!-- generated on 2024-09-22 16:15:18 by Eclipse SUMO netedit Version 1.20.0
-->

<routes xmlns:xsi="http://www.w3.org/2001/XMLSchema-instance" xsi:noNamespaceSchemaLocation="http://sumo.dlr.de/xsd/routes_file.xsd">
    <!-- Routes -->
    <route id="r_0" edges="-E1 E3 E5"/>
    <route id="r_1" edges="E2 -E0"/>
    <route id="r_10" edges="-E1 -E2"/>
    <route id="r_11" edges="-E1 -E0"/>
    <route id="r_12" edges="E4 -E3 -E2"/>
    <route id="r_13" edges="E4 -E3 -E0"/>
    <route id="r_14" edges="E4 -E3 E1"/>
    <route id="r_15" edges="E4 E5"/>
    <route id="r_16" edges="-E5 -E4"/>
    <route id="r_17" edges="-E5 -E3 -E2"/>
    <route id="r_18" edges="-E5 -E3 -E0"/>
    <route id="r_19" edges="-E5 -E3 E1"/>
    <route id="r_2" edges="E2 E1"/>
    <route id="r_3" edges="-E1 E3 -E4"/>
    <route id="r_4" edges="E2 E3 E5"/>
    <route id="r_5" edges="E2 E3 -E4"/>
    <route id="r_6" edges="E0 -E2"/>
    <route id="r_7" edges="E0 E3 E5"/>
    <route id="r_8" edges="E0 E1"/>
    <route id="r_9" edges="E0 E3 -E4"/>
</routes>
